# Packages
 &PACKAGES
 useDiagnostics=.TRUE.,
 useShelfIce=.TRUE.,
 useRBCS=.TRUE.,
 useWallModel=.TRUE.,
 /
